##CIF_1.1

data_sm_global
#Used dictionaries
loop_
_audit_conform_dict_name
_audit_conform_dict_version
_audit_conform_dict_location
cif_core.dic 	2.4.2 	.
cif_pd.dic 		1.0.1 	.
cif_sm.dic 		0.1 	'redaktion.landolt-boernstein(at)springer.com'

#About this content and reference
_sm_credits_copyright
;PAULING FILE Multinaries Edition - 2012. SpringerMaterials Release 2014.
http://www.paulingfile.com
Unique LPF ID Number SD1903175
Project Coordinator: Shuichi Iwata
Section-Editors: Karin Cenzual (Crystal Structures), Hiroaki Okamoto (Phase 
Diagrams), Fritz Hulliger (Physical Properties)
(c) Springer & Material Phases Data System (MPDS), Switzerland & National 
Institute for Materials Science (NIMS), Japan 2014.
(Data generated pre-2002: (c) Springer & MPDS & NIMS; 
post-2001: (c) Springer & MPDS)
All Rights Reserved. Version 2014.06.
;

_audit_creation_method
;This data have been compiled from the crystallographic datasheet for 
"&#x03b4;-Al2O3 (Al2O3 m-&#x03b4;) Crystal Structure" 
taken from SpringerMaterials (sm_isp_sd_1903175).
;

_publ_section_references
;Repelin Y., Husson E.: <i>Etudes structurales d'alumines de transition. Alumines gamma et delta</i>. Materials Research Bulletin <b>25</b> (1990) 611-621 (in French).
;

#Phase classification
_sm_phase_labels				'Al2O3 m-&#x03b4;'
_chemical_name_mineral			''
_sm_chemical_compound_class		'oxide'
_sm_phase_prototype				'Fe2 O3 '
_sm_pearson_symbol				'tP160'
_symmetry_Int_Tables_number		92
_sm_sample_details
;sample prepared from alumina, 
powder (determination of cell and structural parameters)
;
_sm_measurement_details
;automatic diffractometer (determination of cell parameters), 
automatic diffractometer; Siemens (determination of structural parameters), 
X-rays, Cu K&#x03b1; (determination of cell and structural parameters)
;
_sm_interpretation_details
;complete structure determined, 
<i>R</i> = 0.04
;

data_sm_isp_SD1903175-standardized_unitcell
#Cell Parameters
_cell_length_a					5.599
_cell_length_b					5.599
_cell_length_c					23.657
_cell_angle_alpha				90
_cell_angle_beta				90
_cell_angle_gamma				90
_sm_length_ratio_ab				1.000
_sm_length_ratio_bc				0.237
_sm_length_ratio_ca				4.225
_cell_volume 					741.6
_symmetry_space_group_name_H-M	'P-4m2'
_symmetry_Int_Tables_number		115
_cell_formula_units_Z			12
_sm_cell_transformation
;-x,-y,-z; origin shift 1/2 1/2 1/2
;

#Atom Coordinates
loop_
_atom_site_label
_atom_site_type_symbol
_atom_site_Wyckoff_symbol
_sm_site_symmetry
_atom_site_fract_x
_atom_site_fract_y
_atom_site_fract_z
_atom_site_occupancy
_sm_coordination_number
_sm_atomic_environment_type
O2 'O' .4k ..m. 0.2049 0.5 0.20137 1 4 'tetrahedron, Al<sub>4</sub>'
O4 'O' .4k ..m. 0.21783 0.5 0.87407 1 4 'tetrahedron, Al<sub>4</sub>'
Al2' 'Al' .4k ..m. 0.22922 0.5 0.952 0.833 6 'octahedron, O<sub>6</sub>'
O1 'O' .4k ..m. 0.23109 0.5 0.37119 1 4 'tetrahedron, Al<sub>4</sub>'
Al1' 'Al' .4k ..m. 0.23923 0.5 0.2852 0.833 6 'octahedron, O<sub>6</sub>'
Al3' 'Al' .4k ..m. 0.2396 0.5 0.63192 0.833 6 'octahedron, O<sub>6</sub>'
O3 'O' .4k ..m. 0.24048 0.5 0.03994 1 4 'tetrahedron, Al<sub>4</sub>'
O5 'O' .4k ..m. 0.25632 0.5 0.71443 1 4 'tetrahedron, Al<sub>4</sub>'
O6 'O' .4k ..m. 0.26194 0.5 0.55209 1 4 'tetrahedron, Al<sub>4</sub>'
O12 'O' .4j ..m. 0.22452 0 0.53943 1 4 'tetrahedron, Al<sub>4</sub>'
O10 'O' .4j ..m. 0.2245 0 0.86724 1 4 'tetrahedron, Al<sub>4</sub>'
Al5' 'Al' .4j ..m. 0.2278 0 0.12956 0.833 6 'octahedron, O<sub>6</sub>'
O8 'O' .4j ..m. 0.22925 0 0.20833 1 4 'tetrahedron, Al<sub>4</sub>'
Al4' 'Al' .4j ..m. 0.23114 0 0.45235 0.833 6 'octahedron, O<sub>6</sub>'
Al6' 'Al' .4j ..m. 0.23966 0 0.79101 0.833 6 'octahedron, O<sub>6</sub>'
O9 'O' .4j ..m. 0.2485 0 0.0431 1 4 'tetrahedron, Al<sub>4</sub>'
O11 'O' .4j ..m. 0.26 0 0.71 1 4 'tetrahedron, Al<sub>4</sub>'
O7 'O' .4j ..m. 0.26681 0 0.375 1 4 'tetrahedron, Al<sub>4</sub>'
Al5 'Al' .2g .2mm. 0 0.5 0.08995 1 4 'tetrahedron, O<sub>4</sub>'
Al6 'Al' .2g .2mm. 0 0.5 0.41896 1 4 'tetrahedron, O<sub>4</sub>'
Al4 'Al' .2g .2mm. 0 0.5 0.75495 1 4 'tetrahedron, O<sub>4</sub>'
Al3 'Al' .2f .2mm. 0.5 0.5 0.16667 1 4 'tetrahedron, O<sub>4</sub>'
Al7 'Al' .2e .2mm. 0 0 0.33333 1 4 'tetrahedron, O<sub>4</sub>'
Al1 'Al' .1c .-4m2 0.5 0.5 0.5 1 4 'tetrahedron, O<sub>4</sub>'
Al2 'Al' .1a .-4m2 0 0 0 1 4 'tetrahedron, O<sub>4</sub>'

_sm_atom_site_transformation
;-x,-y,-z; origin shift 1/2 1/2 1/2
;

#Isotropic Displacement Parameters
loop_
_atom_site_label_1
_atom_site_B_iso_or_equiv
_sm_atom_site_isotropic_displacement_parameter_type
_atom_site_B_equiv_geom_mean
O1 0.015 'Biso' ?
O2 0.015 'Biso' ?
O3 0.015 'Biso' ?
O4 0.015 'Biso' ?
O5 0.015 'Biso' ?
O6 0.015 'Biso' ?
O7 0.015 'Biso' ?
O8 0.015 'Biso' ?
O9 0.015 'Biso' ?
O10 0.015 'Biso' ?
O11 0.015 'Biso' ?
O12 0.015 'Biso' ?
Al1 0.0206 'Biso' ?
Al2 0.0206 'Biso' ?
Al3 0.0206 'Biso' ?
Al4 0.0206 'Biso' ?
Al5 0.0206 'Biso' ?
Al6 0.0206 'Biso' ?
Al7 0.0206 'Biso' ?
Al1' 0.0128 'Biso' ?
Al2' 0.0128 'Biso' ?
Al3' 0.0128 'Biso' ?
Al4' 0.0128 'Biso' ?
Al5' 0.0128 'Biso' ?
Al6' 0.0128 'Biso' ?

data_sm_isp_SD1903175-published_cell
#Cell Parameters
_cell_length_a					5.599
_cell_length_b					5.599
_cell_length_c					23.657
_cell_angle_alpha				90
_cell_angle_beta				90
_cell_angle_gamma				90
_sm_length_ratio_ab				1.000
_sm_length_ratio_bc				0.237
_sm_length_ratio_ca				4.225
_cell_volume 					741.62
_symmetry_space_group_name_H-M	'P-4m2'
_symmetry_Int_Tables_number		115
_cell_formula_units_Z			12

#Atom Coordinates
loop_
_atom_site_label
_atom_site_type_symbol
_atom_site_Wyckoff_symbol
_sm_site_symmetry
_atom_site_fract_x
_atom_site_fract_y
_atom_site_fract_z
_atom_site_occupancy
_sm_coordination_number
_sm_atomic_environment_type
O1 'O' .4j ..m. 0.26891 0 0.12881 1 ? '?'
O2 'O' .4j ..m. 0.2951 0 0.29863 1 ? '?'
O3 'O' .4j ..m. 0.25952 0 0.46006 1 ? '?'
O4 'O' .4j ..m. 0.28217 0 0.62593 1 ? '?'
O5 'O' .4j ..m. 0.24368 0 0.78557 1 ? '?'
O6 'O' .4j ..m. 0.23806 0 0.94791 1 ? '?'
O7 'O' .4k ..m. 0.23319 0.5 0.125 1 ? '?'
O8 'O' .4k ..m. 0.27075 0.5 0.29167 1 ? '?'
O9 'O' .4k ..m. 0.2515 0.5 0.4569 1 ? '?'
O10 'O' .4k ..m. 0.2755 0.5 0.63276 1 ? '?'
O11 'O' .4k ..m. 0.24 0.5 0.79 1 ? '?'
O12 'O' .4k ..m. 0.27548 0.5 0.96057 1 ? '?'
Al1 'Al' .1a .-4m2 0 0 0 1 ? '?'
Al2 'Al' .1c .-4m2 0.5 0.5 0.5 1 ? '?'
Al3 'Al' .2e .2mm. 0 0 0.333333333333333 1 ? '?'
Al4 'Al' .2g .2mm. 0 0.5 0.25495 1 ? '?'
Al5 'Al' .2g .2mm. 0 0.5 0.58995 1 ? '?'
Al6 'Al' .2g .2mm. 0 0.5 0.91896 1 ? '?'
Al7 'Al' .2f .2mm. 0.5 0.5 0.16667 1 ? '?'
Al1' 'Al' .4j ..m. 0.26077 0 0.2148 0.833 ? '?'
Al2' 'Al' .4j ..m. 0.27078 0 0.548 0.833 ? '?'
Al3' 'Al' .4j ..m. 0.2604 0 0.86808 0.833 ? '?'
Al4' 'Al' .4k ..m. 0.26886 0.5 0.04765 0.833 ? '?'
Al5' 'Al' .4k ..m. 0.2722 0.5 0.37044 0.833 ? '?'
Al6' 'Al' .4k ..m. 0.26034 0.5 0.70899 0.833 ? '?'

#Isotropic Displacement Parameters
loop_
_atom_site_label_1
_atom_site_B_iso_or_equiv
_sm_atom_site_isotropic_displacement_parameter_type
_atom_site_B_equiv_geom_mean
O1 0.015 'Biso' ?
O2 0.015 'Biso' ?
O3 0.015 'Biso' ?
O4 0.015 'Biso' ?
O5 0.015 'Biso' ?
O6 0.015 'Biso' ?
O7 0.015 'Biso' ?
O8 0.015 'Biso' ?
O9 0.015 'Biso' ?
O10 0.015 'Biso' ?
O11 0.015 'Biso' ?
O12 0.015 'Biso' ?
Al1 0.0206 'Biso' ?
Al2 0.0206 'Biso' ?
Al3 0.0206 'Biso' ?
Al4 0.0206 'Biso' ?
Al5 0.0206 'Biso' ?
Al6 0.0206 'Biso' ?
Al7 0.0206 'Biso' ?
Al1' 0.0128 'Biso' ?
Al2' 0.0128 'Biso' ?
Al3' 0.0128 'Biso' ?
Al4' 0.0128 'Biso' ?
Al5' 0.0128 'Biso' ?
Al6' 0.0128 'Biso' ?

data_sm_isp_SD1903175-niggli_reduced_cell
#Cell Parameters
_cell_length_a					5.599
_cell_length_b					5.599
_cell_length_c					23.657
_cell_angle_alpha				90
_cell_angle_beta				90
_cell_angle_gamma				90
_sm_length_ratio_ab				1.000
_sm_length_ratio_bc				0.237
_sm_length_ratio_ca				4.225
_cell_volume 					741.62
_symmetry_space_group_name_H-M	''
_symmetry_Int_Tables_number		?
_cell_formula_units_Z			12

#Atom Coordinates
loop_
_atom_site_label
_atom_site_type_symbol
_atom_site_Wyckoff_symbol
_sm_site_symmetry
_atom_site_fract_x
_atom_site_fract_y
_atom_site_fract_z
_atom_site_occupancy
_sm_coordination_number
_sm_atomic_environment_type
? ? ? ? ? ? ? ? ? ?

data_sm_isp_SD1903175-powder_pattern
#Powder Pattern
#Note: Powder patterns are provided using custom cif-fields!
loop_
_sm_powderpattern_unit_published_line
_sm_powderpattern_value_published_line
_sm_powderpattern_unit_computed_line
_sm_powderpattern_value_computed_line
_sm_powderpattern_intensity
_sm_powderpattern_miller_indices_h
_sm_powderpattern_miller_indices_k
_sm_powderpattern_miller_indices_l
_sm_powderpattern_radiation
_sm_powderpattern_remark
'd' 5.4666 'd' 0.5467 3 0 1 1 'XD' ''
'd' 5.0633 'd' 0.5063 2 0 1 2 'XD' ''
'd' 4.5483 'd' 0.4548 15 0 1 3 'XD' ''
'd' 4.0733 'd' 0.4073 1 0 1 4 'XD' 'intensity given as &#x003c; 1'
'd' 3.6099 'd' 0.3610 1 0 1 5 'XD' 'intensity given as &#x003c; 1'
'd' 3.2291 'd' 0.3229 2 0 1 6 'XD' ''
'd' 3.0495 'd' 0.3049 6 1 1 5 'XD' ''
'd' 2.8804 'd' 0.2880 29 0 1 7 'XD' ''
'd' 2.8115 'd' 0.2811 32 0 2 0 'XD' ''
'd' 2.7859 'd' 0.2786 30 0 2 1 'XD' ''
'd' 2.7280 'd' 0.2728 71 0 2 2 'XD' ''
'd' 2.5901 'd' 0.2590 22 1 1 7 'XD' ''
'd' 2.4925 'd' 0.2493 37 1 2 1 'XD' ''
'd' 2.4427 'd' 0.2443 56 1 2 2 'XD' ''
'd' 2.4086 'd' 0.2409 43 0 2 5 'XD' ''
'd' 2.3876 'd' 0.2388 38 1 2 3 'XD' ''
'd' 2.3730 'd' 0.2373 34 1 0 9 'XD' ''
'd' 2.3154 'd' 0.2315 37 1 2 4 'XD' ''
'd' 2.2794 'd' 0.2279 50 0 2 6 'XD' ''
'd' 2.1601 'd' 0.2160 3 0 2 7 'XD' ''
'd' 2.0136 'd' 0.2014 45 1 2 7 'XD' ''
'd' 2.0060 'd' 0.2006 60 0 1 11 'XD' ''
'd' 1.9860 'd' 0.1986 70 2 2 2 'XD' ''
'd' 1.9688 'd' 0.1969 30 2 2 1 'XD' ''
'd' 1.9473 'd' 0.1947 36 2 2 2 'XD' ''
'd' 1.9132 'd' 0.1913 16 2 2 3 'XD' 'additional indices 0 2 9, 1 2 8'
'd' 1.8294 'd' 0.1829 1 2 2 5 'XD' 'intensity given as &#x003c; 1'
'd' 1.8178 'd' 0.1818 2 0 3 3 'XD' ''
'd' 1.8060 'd' 0.1806 4 2 0 10 'XD' 'broad'
'd' 1.7858 'd' 0.1786 4 0 3 4 'XD' ''
'd' 1.7710 'd' 0.1771 4 1 3 0 'XD' 'additional indices 2 2 6'
'd' 1.6284 'd' 0.1628 3 1 2 11 'XD' ''
'd' 1.6101 'd' 0.1610 4 2 0 12 'XD' ''
'd' 1.5381 'd' 0.1538 19 2 3 2 'XD' ''
'd' 1.5171 'd' 0.1517 16 1 3 8 'XD' 'additional indices 2 2 10, 0 1 15'
'd' 1.4559 'd' 0.1456 17 2 2 11 'XD' ''
'd' 1.4454 'd' 0.1445 16 0 2 14 'XD' ''
'd' 1.3996 'd' 0.1400 56 0 4 0 'XD' ''
'd' 1.3959 'd' 0.1396 90 0 4 1 'XD' 'additional indices 2 2 12'
'd' 1.3911 'd' 0.1391 100 0 4 2 'XD' ''
'd' 1.2918 'd' 0.1292 4 0 4 7 'XD' ''
'd' 1.2837 'd' 0.1284 4 2 2 14 'XD' ''
'd' 1.2589 'd' 0.1259 5 1 4 7 'XD' 'additional indices 2 3 11'
'd' 1.2265 'd' 0.1227 2 3 3 7 'XD' ''
'd' 1.2171 'd' 0.1217 1 2 3 12 'XD' 'intensity given as &#x003c; 1'
'd' 1.1506 'd' 0.1151 9 2 4 8 'XD' ''
'd' 1.1444 'd' 0.1144 10 2 3 14 'XD' ''
'd' 1.1401 'd' 0.1140 5 0 4 12 'XD' ''
'd' 1.1358 'd' 0.1136 4 1 3 16 'XD' ''
'd' 1.1128 'd' 0.1113 1 0 5 2 'XD' 'additional indices 3 4 2'
'd' 1.1108 'd' 0.1111 1 0 4 13 'XD' 'additional indices 0 5 3, 3 4 3'
'd' 1.1072 'd' 0.1107 3 2 4 10 'XD' 'additional indices 2 3 15'
'd' 1.1008 'd' 0.1101 2 0 5 4 'XD' 'additional indices 3 4 4'
'd' 1.0969 'd' 0.1097 1 1 5 0 'XD' ''
'd' 1.0477 'd' 0.1048 3 0 5 8 'XD' 'diffuse; additional indices 3 4 8, 0 4 15'
'd' 1.0442 'd' 0.1044 4 1 5 7 'XD' ''
'd' 1.0398 'd' 0.1040 3 3 3 14 'XD' 'diffuse; additional indices 2 5 0'
'd' 1.0356 'd' 0.1036 5 2 5 2 'XD' ''
'd' 1.0300 'd' 0.1030 3 3 4 9 'XD' 'additional indices 0 5 9'
'd' 1.0066 'd' 0.1007 8 2 4 14 'XD' 'additional indices 2 5 6'
'd' 0.9996 'd' 0.1000 7 1 4 16 'XD' ''
'd' 0.9965 'd' 0.0997 8 1 5 10 'XD' ''
'd' 0.9928 'd' 0.0993 7 0 5 11 'XD' 'additional indices 3 4 11'
'd' 0.9745 'd' 0.0975 3 3 4 12 'XD' 'additional indices 0 5 12'

